tests/data/short_circuit/floating-ground-edge-case/floating-ground-no-error-succeeded-scenarios/wye_n-wye/sc_output_batch.json
{
  "version": "1.0",
  "type": "sc_output",
  "is_batch": true,
  "attributes": {},
  "data": [
    {
      "node": [
        {"id": 1, "energized": 1, "u_pu": [1.0999999999999153, 1.0999999999999153, 1.099999999999915], "u": [6350.8529610853939, 6350.8529610853939, 6350.852961085393], "u_angle": [6.3358207906926342e-14, -2.0943951023931322, 2.0943951023932588]},
        {"id": 2, "energized": 1, "u_pu": [0, 1.9051606302941033, 1.9051606302941033], "u": [0, 109.99450027497777, 109.99450027497777], "u_angle": [0, -2.6179938779914309, 2.6179938779915579]}
      ],
      "transformer": [
        {"id": 4, "energized": 1, "i_from": [0.006350694197696947, 0.0063506941977199459, 0.0063506941977063448], "i_from_angle": [-1.4706289056319679, 2.7181612991521309, 0.62376619676010747], "i_to": [1.4332917616497527e-12, 6.4098756212785464e-13, 6.4098756212785464e-13], "i_to_angle": [2.0344439357957027, 1.5707963267948966, 3.1415926535897931]}
      ],
      "source": [
        {"id": 3, "energized": 1, "i": [0.0063347746176986366, 0.0063328600383232552, 0.0063430470252739801], "i_angle": [-1.4728574023083705, 2.7158646025661142, 0.62201537718458677]}
      ],
      "fault": [
        {"id": 11, "energized": 1, "i_f": [1.4332917616497527e-12, 0, 0], "i_f_angle": [-1.1071487177940904, 0, 0]}
      ]
    },
    {
      "node": [
        {},
        {}
      ],
      "transformer": [
        {}
      ],
      "source": [
        {}
      ],
      "fault": [
        {}
      ]
    },
    {
      "node": [
        {"id": 1, "energized": 1, "u_pu": [1.0999999990597507, 1.0999999996625927, 1.0999999999999148], "u": [6350.8529556573512, 6350.852959137861, 6350.8529610853911], "u_angle": [1.3942502412024955e-10, -2.094395101583264, 2.0943951023932588]},
        {"id": 2, "energized": 1, "u_pu": [0, 0, 1.6499175041246659], "u": [0, 0, 95.258031514705124], "u_angle": [0, 0, 2.0943951023932588]}
      ],
      "transformer": [
        {"id": 4, "energized": 1, "i_from": [55.002750049066222, 55.002750049070258, 0.0063506941977063448], "i_from_angle": [-0.94708786009921575, 2.1946202548847, 0.62376619676010747], "i_to": [5499.9999957412856, 5499.9999957412856, 6.4098756212785464e-13], "i_to_angle": [2.1945625241876385, -0.94703012940215459, -1.5707963267948966]}
      ],
      "source": [
        {"id": 3, "energized": 1, "i": [55.002738634396813, 55.002746946333353, 0.0063538709754221503], "i_angle": [-0.94708786596272787, 2.1946201463714075, 0.62346045524079408]}
      ],
      "fault": [
        {"id": 11, "energized": 1, "i_f": [5499.9999957412847, 5499.9999957412847, 0], "i_f_angle": [-0.94703012940215459, 2.1945625241876385, 0]}
      ]
    },
    {
      "node": [
        {"id": 1, "energized": 1, "u_pu": [1.0999999999999153, 1.0999999999999153, 1.099999999999915], "u": [6350.8529610853939, 6350.8529610853939, 6350.852961085393], "u_angle": [6.3358207906926342e-14, -2.0943951023931322, 2.0943951023932588]},
        {"id": 2, "energized": 1, "u_pu": [3.01195421895329e-17, 1.9051606302941038, 1.9051606302941038], "u": [1.7389525790995109e-15, 109.99450027497778, 109.99450027497778], "u_angle": [2.1667677970753951, -2.6179938779914314, 2.6179938779915579]}
      ],
      "transformer": [
        {"id": 4, "energized": 1, "i_from": [0.0063506941976707951, 0.0063506941977146784, 0.0063506941977040602], "i_from_angle": [-1.4706289056325685, 2.7181612991539716, 0.62376619675787948], "i_to": [1.3214297116801535e-12, 1.9229626863835639e-12, 1.4332917616497527e-12], "i_to_angle": [-1.8157749899217608, 1.5707963267948966, 2.0344439357957027]}
      ],
      "source": [
        {"id": 3, "energized": 1, "i": [0.0063347746176986366, 0.0063328600383232552, 0.0063430470252739801], "i_angle": [-1.4728574023083705, 2.7158646025661142, 0.62201537718458677]}
      ],
      "fault": [
        {"id": 11, "energized": 1, "i_f": [1.2296251608431004e-12, 0, 0], "i_f_angle": [1.3813696336779466, 0, 0]}
      ]
    },
    {
      "node": [
        {},
        {}
      ],
      "transformer": [
        {}
      ],
      "source": [
        {}
      ],
      "fault": [
        {}
      ]
    },
    {
      "node": [
        {"id": 1, "energized": 1, "u_pu": [1.0999999990597507, 1.0999999996625927, 1.0999999999999148], "u": [6350.8529556573512, 6350.852959137861, 6350.8529610853911], "u_angle": [1.3942502412024955e-10, -2.094395101583264, 2.0943951023932588]},
        {"id": 2, "energized": 1, "u_pu": [1.5141730041190059e-17, 1.5141730041190059e-17, 1.6499175041246661], "u": [8.7420819152777231e-16, 8.7420819152777231e-16, 95.258031514705138], "u_angle": [-2.3274186768508223, -2.3274186768508223, 2.0943951023932588]}
      ],
      "transformer": [
        {"id": 4, "energized": 1, "i_from": [55.002750049066208, 55.002750049070265, 0.0063506941976951125], "i_from_angle": [-0.94708786009921564, 2.1946202548847, 0.62376619675764977], "i_to": [5499.9999957412856, 5499.9999957412856, 1.4332917616497527e-12], "i_to_angle": [2.1945625241876385, -0.94703012940215459, 2.0344439357957027]}
      ],
      "source": [
        {"id": 3, "energized": 1, "i": [55.002738634396813, 55.002746946333353, 0.0063538709754221503], "i_angle": [-0.94708786596272787, 2.1946201463714075, 0.62346045524079408]}
      ],
      "fault": [
        {"id": 11, "energized": 1, "i_f": [5499.9999957412847, 5499.9999957412847, 0], "i_f_angle": [-0.9470301294021547, 2.1945625241876385, 0]}
      ]
    }
  ]
}